Circuit: * C:\Users\toxic\Desktop\Capstone\TR_EMG\LTspice Sims\AllFiltersRev2.asc

.OP point found by inspection.
Ignoring empty pin current: Ix(u2:1)
Ignoring empty pin current: Ix(u2:2)
Ignoring empty pin current: Ix(u3:1)
Ignoring empty pin current: Ix(u3:2)
Ignoring empty pin current: Ix(u1:1)
Ignoring empty pin current: Ix(u1:2)
Ignoring empty pin current: Ix(u2:1)
Ignoring empty pin current: Ix(u2:2)
Ignoring empty pin current: Ix(u3:1)
Ignoring empty pin current: Ix(u3:2)
Ignoring empty pin current: Ix(u1:1)
Ignoring empty pin current: Ix(u1:2)

Date: Tue Jan 30 00:54:49 2024
Total elapsed time: 0.146 seconds.

tnom = 27
temp = 27
method = trap
totiter = 0
traniter = 0
tranpoints = 0
accept = 0
rejected = 0
matrix size = 14
fillins = 11
solver = Normal
Avg thread counts: 4.0/0.0/0.0/1.1
Matrix Compiler1:      75 opcodes
Matrix Compiler2:      99 opcodes
