Circuit: * C:\Users\toxic\Desktop\Capstone\TR_EMG\LTspice Sims\AllFiltersRev2.asc

.OP point found by inspection.
Ignoring empty pin current: Ix(u2:1)
Ignoring empty pin current: Ix(u2:2)
Ignoring empty pin current: Ix(u3:1)
Ignoring empty pin current: Ix(u3:2)
Ignoring empty pin current: Ix(u1:1)
Ignoring empty pin current: Ix(u1:2)
Ignoring empty pin current: Ix(u2:1)
Ignoring empty pin current: Ix(u2:2)
Ignoring empty pin current: Ix(u3:1)
Ignoring empty pin current: Ix(u3:2)
Ignoring empty pin current: Ix(u1:1)
Ignoring empty pin current: Ix(u1:2)

Date: Wed Feb  7 18:47:28 2024
Total elapsed time: 0.113 seconds.

tnom = 27
temp = 27
method = trap
totiter = 0
traniter = 0
tranpoints = 0
accept = 0
rejected = 0
matrix size = 14
fillins = 6
solver = Normal
Avg thread counts: 12.0/0.0/0.0/1.4
Matrix Compiler1:      65 opcodes
Matrix Compiler2:      94 opcodes
